         1449

H      7.000      7.000     20.000
H      7.000      7.000    -20.000
H     -7.000      7.000     20.000
H     -7.000      7.000    -20.000
H      7.000     -7.000     20.000
H      7.000     -7.000    -20.000
H     -7.000     -7.000     20.000
H     -7.000     -7.000    -20.000
N  -3.350  -2.090  -2.815
N  -3.060  -2.348  -3.736
N  -3.351  -1.875  -4.568
N  -3.604  -2.817  -4.786
N  -3.428  -3.440  -4.024
N  -4.322  -3.846  -4.216
C  -3.878  -4.321  -3.455
C  -2.971  -4.526  -3.823
N  -2.326  -0.933  -2.007
N  -2.374  -0.860  -3.003
N  -3.273  -1.002  -2.590
N  -3.595  -0.338  -3.265
N  -3.994  -0.355  -4.181
N  -3.301   0.030  -4.790
C  -2.794   0.631  -4.172
C  -3.064   1.345  -4.818
N  -0.366  -1.145  -2.704
N  -0.457  -2.135  -2.808
N  -1.245  -1.742  -3.282
N  -1.381  -1.576  -4.259
N  -0.484  -1.221  -4.522
N  -0.977  -1.425  -5.368
C  -0.571  -1.420  -6.282
C   0.092  -2.131  -6.044
N   6.690  -5.308   4.601
N   6.950  -4.698   3.852
N  -6.934  -3.721   4.032
N   6.735  -2.960   4.590
N  -6.850  -3.667   5.163
N  -6.577  -3.659   6.124
C  -5.755  -3.179   6.432
C  -4.801  -3.040   6.698
N  -4.760  -6.017   0.341
N  -5.587  -5.494   0.137
N  -5.738  -6.324   0.674
N  -5.233  -6.910   0.040
N  -5.830  -6.887  -0.762
N  -5.601  -6.084  -1.312
C  -5.258  -5.148  -1.237
C  -4.640  -4.363  -1.291
N   2.376  -4.598  -1.072
N   1.540  -4.185  -1.434
N   0.863  -3.968  -2.137
N   0.736  -3.082  -2.583
N   1.376  -2.334  -2.404
N   2.287  -1.942  -2.279
C   3.077  -2.160  -2.853
C   3.018  -1.456  -3.561
N  -1.704   6.205   0.259
N  -2.052   5.277   0.121
N  -1.993   5.102  -0.862
N  -1.454   4.379  -1.293
N  -1.983   3.534  -1.378
N  -2.937   3.828  -1.439
C  -3.681   3.277  -1.061
C  -4.495   3.350  -0.485
N   2.298   4.035   4.099
N   2.492   4.985   4.343
N   2.949   5.788   4.726
N   3.575   6.553   4.878
N   4.394   5.989   4.777
N   4.727   5.244   5.355
C   5.286   4.704   4.725
C   5.623   4.457   5.634
N  -3.668   5.280   0.021
N  -3.044   5.680  -0.649
N  -3.983   5.550  -0.965
N  -4.360   4.790  -1.495
N  -3.404   5.007  -1.690
N  -3.208   4.924  -2.667
C  -3.603   4.250  -3.291
C  -4.497   4.115  -3.718
N   6.522  -2.091  -1.278
N   6.634  -2.723  -2.045
N   6.692  -2.846  -3.036
N  -6.623  -3.078  -3.727
N  -5.905  -3.744  -3.934
N  -5.923  -4.741  -3.860
C  -5.000  -4.663  -4.237
C  -4.741  -4.938  -3.312
N  -5.622   5.317  -0.340
N  -5.455   4.488  -0.872
N  -5.179   4.403  -1.830
N  -4.353   4.479  -2.389
N  -4.942   4.862  -3.100
N  -5.360   3.979  -2.887
C  -4.776   3.196  -3.102
C  -4.499   2.403  -3.644
N   0.949  -2.450   1.880
N   1.507  -3.180   1.486
N   2.157  -3.644   2.089
N   3.007  -4.170   2.110
N   2.909  -3.521   2.865
N   2.791  -3.222   3.811
C   3.565  -2.658   4.098
C   3.769  -3.428   4.703
N   1.259  -6.562  -5.158
N   1.595  -5.747  -5.630
N   2.182  -5.038  -5.240
N   1.691  -5.109  -4.372
N   1.590  -4.250  -4.875
N   2.288  -3.913  -4.242
C   2.310  -3.355  -5.071
C   1.674  -2.607  -5.264
N  -1.987   5.772  -2.784
N  -1.549   5.179  -3.461
N  -0.714   5.387  -3.969
N  -0.668   5.325  -2.972
N   0.200   5.700  -3.298
N   1.159   5.420  -3.341
C   2.056   5.087  -3.631
C   2.493   5.151  -2.734
N   0.239   5.419   3.664
N  -0.487   5.524   4.344
N  -1.160   5.703   3.626
N  -1.936   5.096   3.795
N  -1.679   5.134   4.761
N  -1.670   5.688   5.593
C  -1.389   6.196   6.407
C  -1.517   6.924   7.081
N   5.707   4.940  -1.294
N   6.269   4.453  -1.963
N   6.869   4.675  -2.732
N  -6.201   4.970  -2.949
N  -5.784   5.876  -3.020
N  -5.474   6.101  -3.944
C  -5.469  -6.944  -3.648
C  -4.512   6.896  -3.890
N   5.379  -2.919   0.013
N   4.514  -3.155  -0.430
N   4.913  -3.789  -1.093
N   5.228  -2.937  -1.511
N   5.084  -2.029  -1.904
N   4.461  -1.312  -2.216
C   3.998  -0.432  -2.103
C   3.382  -1.134  -2.462
N  -6.804   5.067  -0.482
N  -6.269   4.930  -1.315
N  -5.986   5.608  -1.994
N  -5.602   6.455  -2.361
N  -5.550  -6.572  -2.140
N  -4.624  -6.501  -2.512
C  -4.428  -5.525  -2.422
C  -3.965  -4.734  -2.022
N  -6.638  -0.362  -3.187
N  -6.843  -0.942  -3.976
N  -6.571  -0.501  -4.831
N   6.843   0.133  -4.328
N  -6.415   0.782  -4.497
N  -5.808   1.111  -5.220
C  -5.046   1.741  -5.071
C  -4.196   2.217  -5.295
N  -6.181   1.173   3.637
N  -5.490   1.694   4.138
N  -5.392   0.699   4.145
N  -4.511   1.097   3.889
N  -4.418   1.164   4.883
N  -4.269   2.115   4.611
C  -5.095   2.107   5.174
C  -4.343   2.554   5.657
N  -0.941   4.445  -3.764
N  -0.992   4.343  -4.757
N  -0.798   5.224  -5.189
N  -1.791   5.258  -5.295
N  -2.246   4.579  -4.718
N  -3.009   3.955  -4.890
C  -3.980   3.991  -4.653
C  -4.051   2.993  -4.658
N  -2.297   0.052   4.446
N  -2.310   0.112   3.448
N  -3.232  -0.210   3.231
N  -4.125  -0.611   3.026
N  -3.921  -1.077   3.887
N  -3.912  -1.684   4.681
C  -3.737  -2.057   5.593
C  -3.822  -2.384   6.534
N  -6.699  -1.991  -3.029
N   6.453  -1.920  -3.554
N   6.225  -1.225  -4.236
N   5.992  -0.674  -5.037
N   5.073  -0.312  -4.883
N   5.088  -1.271  -4.598
C   4.250  -0.726  -4.556
C   4.095  -1.692  -4.346
N   0.731  -0.795   2.450
N   0.939  -1.353   3.254
N   1.854  -1.692   3.031
N   2.339  -1.085   3.661
N   2.635  -1.092   2.705
N   3.551  -1.341   3.021
C   4.051  -1.647   3.831
C   3.815  -1.393   4.769
N  -6.465  -1.007  -1.346
N  -5.980  -0.146  -1.189
N  -6.685  -0.249  -1.891
N   6.373  -0.583  -1.899
N   6.538  -0.695  -2.879
N   5.551  -0.550  -2.943
C   4.686  -0.624  -3.440
C   3.844  -0.131  -3.218
N   5.069  -3.808   0.190
N   5.827  -3.690  -0.452
N   5.786  -3.867  -1.435
N   6.350  -4.021  -2.246
N  -6.775  -3.830  -1.801
N  -6.148  -4.063  -2.544
C  -5.161  -4.207  -2.477
C  -4.214  -3.884  -2.458
N  -0.085  -3.686  -2.031
N  -0.232  -3.434  -2.988
N  -0.214  -4.258  -3.554
N  -0.340  -5.160  -3.140
N   0.291  -5.055  -3.909
N  -0.700  -4.974  -4.009
C  -1.683  -4.821  -3.902
C  -2.370  -5.180  -3.271
N   4.474   4.023   2.967
N   3.481   3.947   2.883
N   3.946   3.077   3.044
N   4.661   2.713   3.641
N   4.385   3.548   4.118
N   4.060   3.238   5.011
C   4.978   3.028   5.347
C   5.271   2.927   6.298
N   4.991  -3.958  -3.305
N   5.714  -4.615  -3.520
N   6.227  -5.260  -4.086
N  -6.906  -5.115  -4.563
N  -6.706  -4.137  -4.629
N   6.355  -4.280  -4.316
C   6.248  -3.287  -4.364
C   6.587  -3.600  -5.252
N   0.231  -6.734   3.905
N   0.942  -6.030   3.912
N   1.057  -5.100   3.564
N   1.263  -5.059   2.587
N   1.799  -5.689   3.148
N   1.823  -5.507   4.131
C   1.576  -4.559   4.336
C   1.304  -3.665   4.690
N  -4.337   6.386   4.841
N  -4.891  -6.915   4.390
N  -4.784  -5.921   4.384
N  -4.025  -5.746   3.757
N  -3.766  -4.807   3.981
N  -4.556  -4.196   3.941
C  -4.821  -3.598   4.697
C  -3.990  -3.460   5.236
N  -0.684   2.390   2.205
N   0.248   2.048   2.326
N   0.556   1.132   2.585
N   0.660   0.145   2.702
N   0.848   0.753   3.472
N   1.217  -0.016   3.995
C   1.888  -0.174   4.718
C   2.428  -0.998   4.889
N  -6.618  -1.513   1.863
N   6.804  -0.797   1.471
N   6.086  -1.400   1.124
N   6.600  -1.441   0.267
N   6.386  -1.175  -0.672
N   5.497  -0.733  -0.549
C   4.758  -0.500  -1.181
C   3.845  -0.832  -0.942
N  -6.331  -2.523  -1.360
N  -6.169  -1.789  -2.019
N  -5.774  -0.901  -2.255
N  -5.723  -0.246  -3.009
N  -5.417   0.702  -2.917
N  -4.534   1.168  -2.962
C  -4.463   2.049  -2.494
C  -3.787   2.724  -2.789
N   0.025   2.233  -1.456
N   0.221   2.528  -2.391
N   0.112   3.489  -2.648
N   0.264   3.180  -3.587
N   0.950   2.588  -4.010
N   1.365   3.012  -3.205
C   2.068   3.078  -2.497
C   2.342   2.167  -2.807
N   5.815   5.235  -2.439
N   5.510   4.795  -3.284
N   6.444   4.646  -3.607
N   5.709   4.238  -4.148
N   4.998   3.903  -3.530
N   4.298   4.241  -2.901
C   3.413   3.830  -3.121
C   2.771   3.272  -3.646
N  -1.403   2.437  -1.278
N  -0.906   3.134  -1.793
N  -1.322   3.305  -2.687
N  -1.551   2.697  -3.447
N  -1.460   1.983  -4.141
N  -1.736   1.446  -4.938
C  -1.920   1.905  -5.808
C  -1.095   1.344  -5.742
N   6.758   5.323  -1.689
N  -6.808   5.781  -2.465
N   6.415   6.005  -3.053
N   6.471   6.191  -4.034
N   6.727   5.286  -4.372
N  -6.305   5.131  -4.569
C  -5.337   4.981  -4.773
C  -4.750   5.245  -4.008
N   5.929   3.359  -0.147
N   6.173   3.970  -0.899
N   6.118   3.052  -1.293
N   5.573   2.561  -1.973
N   5.017   3.390  -1.913
N   4.345   4.092  -1.678
C   3.650   3.500  -2.086
C   3.137   2.871  -2.670
N  -3.463   1.541  -0.254
N  -3.829   0.626  -0.080
N  -3.797   0.410  -1.056
N  -4.338  -0.243  -1.585
N  -4.279   0.673  -1.982
N  -3.583   1.372  -2.144
C  -3.569   1.845  -3.025
C  -3.406   0.896  -3.295
N   5.930   1.667  -2.519
N   6.122   1.629  -3.500
N   6.756   1.306  -4.202
N   6.180   1.609  -4.961
N   5.362   1.272  -4.496
N   4.469   0.824  -4.442
C   3.596   0.625  -3.996
C   4.333   0.768  -3.336
N   6.237  -5.083  -2.700
N   6.457  -5.909  -2.181
N   6.997  -6.497  -2.783
N  -6.118  -6.217  -3.155
N  -6.766  -6.189  -3.916
N  -6.044  -6.393  -4.577
C  -5.435  -5.879  -3.973
C  -4.829  -5.689  -4.746
N  -5.113  -0.564  -3.904
N  -5.796  -1.123  -4.373
N  -5.092  -1.668  -3.917
N  -5.531  -2.235  -3.220
N  -4.542  -2.226  -3.074
N  -5.083  -2.087  -2.245
C  -5.083  -3.022  -2.598
C  -5.444  -3.483  -1.787
N   0.367  -3.747   3.777
N  -0.627  -3.723   3.890
N  -1.424  -3.320   3.440
N  -1.045  -2.568   3.979
N  -0.259  -2.032   3.669
N   0.477  -2.470   4.186
C   0.719  -1.681   4.750
C   1.590  -2.073   5.046
N   0.436   0.244  -4.047
N   0.751   1.051  -4.546
N  -0.060   1.339  -5.056
N  -0.484   1.861  -4.317
N  -0.095   2.657  -4.780
N  -0.165   3.549  -5.227
C   0.555   4.177  -5.521
C   0.120   4.465  -6.374
N  -6.378   2.999  -2.455
N   6.901   3.122  -3.138
N   6.904   3.523  -4.054
N  -6.098   3.457  -4.066
N  -6.515   2.955  -4.825
N  -5.975   2.408  -5.464
C  -5.103   2.862  -5.283
C  -5.274   2.533  -4.354
N  -2.067  -1.304  -0.859
N  -1.120  -1.490  -1.120
N  -1.074  -1.733  -2.089
N  -1.575  -2.497  -2.495
N  -2.346  -1.911  -2.743
N  -2.632  -2.869  -2.776
C  -3.072  -3.733  -3.018
C  -3.184  -4.694  -2.762
N   0.310  -3.903   0.179
N   0.067  -4.781  -0.233
N   0.210  -5.625  -0.750
N   0.777  -6.235  -1.304
N   1.218  -5.982  -2.165
N   0.359  -5.899  -2.670
C   1.068  -6.519  -3.006
C   1.747  -6.894  -3.637
N  -5.676   3.113   4.936
N  -6.534   3.337   4.474
N  -6.805   4.171   3.994
N  -6.914   4.355   4.971
N  -6.484   4.312   5.872
N  -6.586   4.703   6.787
C   6.561   4.265   7.070
C   6.277   3.425   6.608
N  -0.345  -6.817  -2.106
N   0.013  -6.999  -3.022
N   0.655   6.618  -3.686
N   0.816   5.830  -4.280
N   1.216   4.915  -4.329
N   0.946   4.283  -3.602
C   1.833   4.100  -3.178
C   2.583   3.907  -2.546
N  -5.887   0.214  -0.198
N  -5.520  -0.658  -0.523
N  -5.062  -0.967  -1.356
N  -4.556  -1.375  -0.597
N  -4.491  -1.997  -1.376
N  -3.758  -2.345  -1.961
C  -3.344  -3.248  -1.845
C  -3.437  -3.935  -1.125
N  -4.163   5.862   3.622
N  -4.082   4.936   3.252
N  -4.554   4.086   3.485
N  -5.154   3.904   2.705
N  -4.878   3.615   1.789
N  -4.357   3.893   0.982
C  -4.287   2.916   0.781
C  -3.833   2.653  -0.071
N   2.933  -5.604  -2.398
N   3.000  -5.570  -3.395
N   3.860  -5.325  -3.843
N   3.490  -4.511  -4.290
N   2.944  -5.258  -4.670
N   2.300  -5.928  -4.302
C   3.259  -6.212  -4.332
C   2.836   6.914  -4.572
N   1.032  -0.972  -6.629
N   0.444  -0.885  -5.825
N   0.102   0.027  -5.596
N   0.717   0.805  -5.473
N   1.596   0.373  -5.673
N   2.159  -0.319  -5.221
C   2.943  -0.227  -4.606
C   2.570  -0.062  -3.693
N   1.128  -1.109  -2.296
N   0.711  -1.763  -2.926
N  -0.009  -1.475  -3.558
N   0.663  -0.768  -3.342
N   1.500  -0.265  -3.126
N   1.432   0.717  -3.302
C   2.104   1.013  -2.623
C   2.208   1.620  -1.835
N  -2.153  -0.963  -3.989
N  -1.934  -0.439  -4.812
N  -1.011  -0.343  -4.439
N  -0.900   0.620  -4.195
N  -1.585   0.062  -3.727
N  -1.922   1.000  -3.811
C  -2.730   1.574  -3.683
C  -2.580   2.311  -3.024
N  -0.319   6.522  -4.315
N  -0.097   6.829  -5.241
N  -0.913  -6.595  -5.214
N  -1.643  -5.933  -5.043
N  -1.820  -6.828  -4.635
N  -2.676  -6.317  -4.704
C  -3.084  -5.545  -4.215
C  -4.037  -5.250  -4.146
N  -1.604  -0.576   3.989
N  -1.227  -0.171   3.156
N  -1.549  -0.883   2.531
N  -2.218  -1.506   2.935
N  -2.646  -2.344   2.596
N  -2.312  -2.510   3.524
C  -2.755  -2.353   4.407
C  -3.139  -3.090   4.964
N  -3.114   4.700  -4.088
N  -2.330   5.283  -3.873
N  -3.096   5.885  -4.100
N  -2.796   6.691  -4.610
N  -2.713  -6.917  -5.527
N  -3.404  -6.214  -5.697
C  -4.064  -5.534  -5.377
C  -3.934  -6.382  -4.863
N  -6.977   0.922   2.818
N   6.194   1.431   3.051
N   6.183   1.449   2.051
N   6.387   1.523   1.075
N  -6.901   1.010   0.596
N  -5.949   1.164   0.330
C  -5.391   1.482  -0.437
C  -5.143   2.450  -0.450
N  -1.321   3.572   3.636
N  -1.374   3.391   2.654
N  -1.001   3.233   1.740
N  -0.412   3.765   1.133
N  -0.472   3.810   0.135
N  -0.200   3.673  -0.817
C   0.564   3.854  -1.436
C   1.068   3.428  -2.188
N  -5.534  -3.151   1.662
N  -6.193  -3.605   2.263
N  -5.978  -4.580   2.219
N  -5.412  -5.401   2.299
N  -4.450  -5.183   2.135
N  -4.238  -5.354   1.173
C  -4.697  -4.932   0.392
C  -4.973  -4.102  -0.093
N  -5.853   4.933   2.180
N  -6.139   4.736   1.243
N  -6.777   5.361   0.795
N   6.244   5.357   1.000
N   5.487   4.828   0.616
N   4.940   5.226  -0.121
C   4.352   4.810  -0.814
C   3.468   4.381  -1.001
N  -0.121  -6.374   5.042
N   0.169   6.693   4.826
N   0.637   5.852   5.096
N   1.523   5.665   4.670
N   2.028   5.393   5.489
N   2.608   6.196   5.624
C   3.006   5.374   6.032
C   3.491   4.714   6.605
N  -2.195   6.983  -0.136
N  -2.160   6.143  -0.677
N  -2.114   6.760  -1.463
N  -1.480  -6.595  -1.890
N  -1.168  -6.400  -2.820
N  -1.944  -6.222  -3.426
C  -2.860  -6.219  -3.027
C  -3.583  -5.540  -3.155
N  -2.877  -6.966   4.008
N  -2.510   6.345   3.384
N  -2.672   6.356   2.397
N  -2.511   5.489   1.924
N  -2.480   4.490   1.916
N  -3.165   3.876   1.525
C  -3.491   3.715   0.594
C  -2.976   3.340  -0.177
N  -4.772   0.276   2.653
N  -5.312  -0.545   2.467
N  -5.800  -0.987   1.714
N  -4.998  -0.639   1.230
N  -4.187  -0.993   0.763
N  -4.092  -1.975   0.601
C  -4.002  -2.423  -0.289
C  -4.097  -3.402  -0.112
N  -1.059  -0.896   0.669
N  -1.183  -1.882   0.780
N  -1.314  -1.496  -0.134
N  -0.812  -2.254  -0.552
N  -1.325  -2.894   0.020
N  -1.714  -3.031  -0.891
C  -2.275  -3.767  -1.269
C  -2.814  -4.060  -2.058
N   4.445   5.662   2.790
N   4.245   5.847   1.828
N   3.315   6.119   1.581
N   3.462   5.491   0.816
N   2.828   4.718   0.806
N   2.388   4.310   0.006
C   2.547   4.860  -0.813
C   1.987   4.097  -1.135
N  -2.044  -2.266   1.953
N  -2.695  -1.537   1.742
N  -3.234  -1.496   0.901
N  -3.021  -2.290   0.331
N  -3.228  -1.477  -0.215
N  -2.801  -2.309  -0.570
C  -2.622  -3.276  -0.384
C  -3.095  -3.468   0.476
N  -5.622   2.142   0.535
N  -6.492   2.473   0.168
N  -6.996   1.898  -0.477
N  -6.334   2.236  -1.146
N  -6.245   1.867  -2.071
N  -5.492   1.250  -1.842
C  -5.099   2.114  -1.530
C  -4.233   2.614  -1.549
N   5.438   6.416   5.121
N   5.436   6.909   4.251
N   4.821  -6.342   4.001
N   4.834  -5.999   4.940
N   4.985  -6.329   5.872
N   5.763  -6.155   5.268
C   6.693  -5.974   5.589
C   6.055  -5.222   5.757
N  -2.196   0.328   1.514
N  -1.557   0.545   0.776
N  -1.794   1.229   0.087
N  -0.827   1.267   0.338
N   0.055   1.698   0.144
N   0.919   1.914  -0.310
C   0.830   2.834   0.072
C   0.846   3.698  -0.431
N   0.292  -1.548   0.433
N   0.864  -0.761   0.664
N   1.814  -0.590   0.925
N   1.360   0.024   0.280
N   1.689  -0.164  -0.646
N   1.837  -0.692  -1.481
C   2.321  -0.460  -2.325
C   2.984   0.189  -2.698
N   0.415   5.331   0.385
N   0.241   4.602  -0.276
N  -0.053   5.546  -0.421
N   0.088   4.878  -1.152
N  -0.604   5.299  -1.738
N   0.074   4.944  -2.381
C   0.904   4.956  -1.822
C   1.727   4.446  -2.074
N  -0.979   5.767   2.337
N  -0.994   6.090   1.391
N  -0.885   6.528   0.499
N  -0.971  -6.759  -0.197
N  -1.417  -6.194  -0.892
N  -1.551  -5.638  -1.712
C  -1.940  -4.906  -1.152
C  -2.473  -5.268  -1.917
N   4.916  -0.090   3.783
N   4.997   0.861   3.486
N   4.332   0.821   2.739
N   4.034   1.338   1.937
N   4.311   1.947   1.194
N   4.446   1.555   0.285
C   5.008   0.843  -0.136
C   5.470   0.633  -0.998
N  -0.498  -3.703   2.804
N  -0.485  -4.013   1.854
N  -1.304  -3.462   2.019
N  -1.332  -3.705   1.049
N  -0.703  -3.716   0.272
N  -1.058  -4.612   0.542
C  -1.689  -4.961  -0.150
C  -1.484  -4.033  -0.460
N   3.146  -5.088   1.555
N   3.374  -5.991   1.193
N   4.254  -6.201   0.766
N   5.036  -6.528   0.235
N   4.336  -6.642  -0.471
N   3.687   6.767  -0.950
C   3.637   6.489  -1.909
C   3.069   6.014  -2.582
N   3.117  -6.049   2.132
N   3.500  -5.232   2.563
N   3.191  -5.790   3.333
N   2.640  -6.144   4.089
N   3.633  -6.132   4.203
N   3.550  -5.768   5.130
C   3.720  -4.896   5.590
C   3.095  -4.120   5.670
N  -3.723   2.159   3.632
N  -3.525   1.412   2.997
N  -4.519   1.427   2.888
N  -4.603   1.411   1.892
N  -4.798   0.467   1.625
N  -4.850   1.013   0.789
C  -4.574   1.744   0.165
C  -4.306   1.617  -0.790
N  -6.738   5.872  -0.049
N   6.655   5.824  -0.842
N   5.704   6.031  -0.613
N   5.553   6.022  -1.601
N   4.872   5.642  -2.227
N   4.097   5.168  -1.809
C   3.394   4.648  -2.294
C   3.391   4.965  -3.243
N  -2.769   3.073   3.931
N  -2.519   2.264   3.398
N  -1.806   1.588   3.212
N  -2.625   1.644   2.640
N  -2.303   1.256   1.776
N  -2.904   2.011   1.511
C  -2.918   2.850   0.968
C  -3.650   2.865   1.649
N   6.658   5.682   3.734
N   6.795   6.670   3.661
N  -6.844  -6.466   3.311
N  -5.972  -6.942   3.206
N  -6.056  -6.290   3.960
N  -6.360  -5.645   4.661
C  -6.324  -4.731   5.064
C  -5.592  -4.372   5.644
N   4.348  -4.445   0.521
N   4.393  -4.679  -0.450
N   4.246  -4.405  -1.401
N   4.453  -5.381  -1.465
N   4.045  -4.910  -2.248
N   3.864  -5.886  -2.372
C   3.310  -6.692  -2.583
C   2.732   6.935  -3.308
N   4.838  -2.799   2.221
N   5.101  -1.896   1.882
N   4.895  -1.486   0.993
N   5.507  -1.630   0.216
N   6.232  -2.232  -0.118
N  -6.813  -2.502  -0.237
C  -6.129  -3.130   0.134
C  -5.947  -3.972  -0.375
N   5.299  -4.118   3.818
N   4.499  -4.566   3.418
N   4.584  -5.111   2.584
N   5.097  -5.956   2.434
N   5.471  -6.882   2.393
N   4.905   6.940   3.198
C   4.572   6.233   3.823
C   5.128   5.464   4.137
N  -1.445   2.366   0.824
N  -2.287   1.827   0.829
N  -2.496   1.913  -0.145
N  -1.827   1.695  -0.856
N  -1.633   1.391  -1.789
N  -2.567   1.746  -1.760
C  -3.255   2.433  -1.993
C  -3.410   2.039  -1.087
N  -4.267   6.382  -1.866
N  -3.645   5.900  -2.482
N  -2.814   6.123  -2.992
N  -3.578   6.650  -3.364
N  -3.655  -6.846  -2.504
N  -2.989  -6.477  -1.855
C  -3.377  -5.594  -2.121
C  -3.322  -5.088  -1.261
N   2.875  -3.497   1.344
N   3.380  -3.354   0.493
N   2.482  -3.173   0.092
N   2.139  -3.487  -0.793
N   2.235  -2.829  -1.540
N   3.124  -2.609  -1.941
C   4.052  -2.399  -2.250
C   4.565  -2.774  -3.023
N   5.740   2.330   2.182
N   5.820   2.944   1.396
N   4.829   2.847   1.491
N   4.330   3.393   0.818
N   4.549   4.219   0.300
N   3.929   3.780  -0.351
C   3.578   3.181  -1.070
C   2.823   3.513  -1.636
N   6.240  -2.676   3.209
N  -6.834  -2.325   3.348
N  -6.810  -1.430   3.795
N   6.340  -1.425   3.268
N   5.507  -1.644   3.777
N   4.978  -2.471   3.586
C   4.638  -2.329   4.516
C   3.963  -2.317   5.254
N  -5.384  -6.855   2.362
N  -5.477  -6.974   1.373
N  -4.885   6.484   0.777
N  -4.171  -6.874   0.498
N  -3.310   6.828   0.909
N  -2.993  -6.526   0.215
C  -3.344  -5.933  -0.511
C  -3.665  -5.469   0.315
N   6.930  -6.661  -1.340
N   6.393   6.585  -1.717
N   5.878  -6.764  -2.276
N   5.149  -6.403  -2.857
N   4.313  -6.947  -2.926
N   4.300   6.755  -3.881
C   3.486   6.232  -3.628
C   2.564   6.082  -3.983
N   3.947   2.216  -5.132
N   3.841   1.789  -4.234
N   3.709   2.774  -4.122
N   4.646   2.433  -4.204
N   5.212   1.994  -3.507
N   4.791   1.934  -2.601
C   3.812   2.070  -2.747
C   3.193   1.286  -2.800
N   2.479  -0.577   1.903
N   3.466  -0.653   2.047
N   3.047  -0.326   1.200
N   2.696   0.505   0.768
N   2.190   1.313   0.465
N   2.988   1.320  -0.138
C   3.193   1.633  -1.065
C   3.126   2.108  -1.943
N   3.218   6.601   2.643
N   3.322  -6.919   1.772
N   2.732  -6.942   0.966
N   2.322  -6.531   0.151
N   1.926   6.643   0.552
N   2.236   6.663  -0.398
C   2.631   6.280  -1.233
C   3.147   5.461  -1.484
N   0.492  -5.960   1.839
N   0.745  -5.375   1.069
N   0.806  -5.417   0.072
N   1.771  -5.622   0.238
N   1.726  -6.051  -0.665
N   1.692  -6.564  -1.523
C   2.174  -6.861  -2.347
C   1.952   6.220  -2.672
N   6.177   4.434   2.303
N   5.746   4.038   1.492
N   5.480   3.462   0.719
N   5.065   2.829   0.066
N   5.022   3.136  -0.885
N   4.347   2.446  -0.620
C   4.077   2.447  -1.582
C   4.356   2.827  -2.465
N   4.940   0.289   0.781
N   5.623  -0.437   0.699
N   5.902   0.136  -0.072
N   6.390   0.766  -0.676
N   6.090   1.336  -1.441
N   5.145   1.523  -1.173
C   4.181   1.432  -1.419
C   4.502   1.020  -2.272
N  -1.987   0.041  -1.078
N  -1.496   0.417  -1.863
N  -0.833  -0.128  -2.376
N  -0.301   0.180  -1.588
N   0.522   0.717  -1.771
N   0.693   1.674  -2.004
C   1.443   2.334  -1.943
C   2.219   2.644  -1.395
N  -3.986  -3.248   3.983
N  -4.649  -2.583   3.638
N  -3.968  -2.039   3.149
N  -4.402  -2.204   2.263
N  -4.417  -2.747   1.423
N  -3.766  -3.504   1.377
C  -4.390  -3.953   0.737
C  -3.783  -4.384   0.069
N   0.198   3.569   3.143
N   0.874   2.846   3.001
N   0.527   2.975   2.072
N   0.069   3.860   1.992
N   1.012   3.810   1.664
N   1.523   3.074   1.220
C   1.908   3.155   0.301
C   1.584   2.780  -0.568
N  -6.236   2.211  -3.798
N  -5.823   1.448  -3.301
N  -4.977   1.391  -3.831
N  -5.102   0.416  -4.015
N  -4.788  -0.228  -4.713
N  -4.318   0.648  -4.604
C  -4.114   1.585  -4.321
C  -3.531   2.334  -4.006
N   6.196   0.157   2.131
N   5.285   0.118   2.541
N   5.636  -0.624   1.970
N   4.646  -0.570   1.841
N   4.364  -0.464   0.887
N   4.044  -0.008   0.057
C   3.777   0.193  -0.886
C   3.637   0.531  -1.816
N   0.175  -2.128   1.234
N   1.014  -2.343   0.733
N   0.922  -2.080  -0.227
N   0.618  -2.977  -0.549
N  -0.016  -3.087  -1.314
N  -0.871  -2.865  -1.784
C  -1.230  -3.757  -1.507
C  -1.800  -4.104  -2.252
N  -4.358   5.768   2.432
N  -3.932   5.865   1.532
N  -3.126   5.826   0.942
N  -3.904   6.157   0.407
N  -4.057   6.553  -0.498
N  -4.376  -6.519  -0.690
C  -4.453  -5.538  -0.509
C  -4.335  -5.859  -1.448
N   2.462   1.700   3.554
N   2.678   1.853   2.590
N   2.209   2.412   1.907
N   1.425   1.817   1.728
N   2.363   1.609   1.450
N   2.755   2.105   0.675
C   2.654   2.516  -0.231
C   2.703   3.452  -0.579
N   5.565   6.547   0.176
N   6.044  -6.616   0.443
N   5.695  -5.987  -0.251
N   6.098  -5.924  -1.164
N   6.569  -5.616  -0.338
N  -6.710  -4.923  -0.355
C  -6.426  -5.092   0.589
C  -5.816  -4.300   0.560
N   2.147   3.835   2.929
N   1.833   4.426   2.186
N   1.942   5.317   2.626
N   1.170   5.608   2.061
N   1.072   5.904   1.111
N   1.578   5.586   0.308
C   1.342   5.375  -0.640
C   1.821   5.420  -1.517
N   6.494   3.537   2.579
N  -6.807   2.828   2.670
N  -6.487   2.794   1.723
N  -6.184   3.398   0.986
N  -5.516   3.519   0.251
N  -6.122   3.430  -0.539
C  -5.531   3.043  -1.247
C  -4.944   3.303  -2.013
N   6.487  -5.270   0.820
N   6.546  -4.285   0.662
N  -6.969  -3.707   0.005
N  -6.956  -3.055   0.763
N  -6.255  -2.453   1.144
N  -5.307  -2.401   0.828
C  -5.201  -3.370   0.602
C  -5.118  -3.009  -0.328
N   1.053  -5.001  -1.927
N   1.895  -4.751  -2.405
N   1.429  -3.995  -2.864
N   2.095  -4.471  -3.439
N   2.662  -3.666  -3.267
N   3.600  -3.472  -3.556
C   3.937  -2.599  -3.909
C   4.137  -1.818  -3.318
N  -0.054  -4.909   4.943
N  -0.899  -5.437   4.857
N  -0.924  -6.378   4.521
N  -1.900  -6.223   4.368
N  -2.049  -5.250   4.548
N  -1.759  -4.389   4.966
C  -2.233  -3.642   5.432
C  -2.935  -3.500   6.129
N   0.692   1.013   1.392
N  -0.299   1.010   1.258
N   0.301   0.788   0.489
N   0.442  -0.158   0.199
N   0.342  -0.386  -0.770
N   0.783   0.511  -0.757
C   1.347   1.083  -1.353
C   1.949   1.162  -0.559
N   3.315  -2.216   1.210
N   3.866  -2.338   0.384
N   2.929  -1.991   0.422
N   3.474  -1.907  -0.412
N   2.692  -1.920  -1.035
N   2.585  -0.931  -0.934
C   3.106  -0.317  -1.527
C   2.531   0.463  -1.772
N  -2.198  -6.940   3.000
N  -2.239  -6.143   2.398
N  -1.429  -6.255   1.822
N  -0.614  -5.996   2.340
N  -1.198  -5.185   2.334
N  -2.044  -5.007   1.831
C  -1.948  -5.281   0.875
C  -2.494  -5.670   0.133
N  -2.837  -5.727   3.648
N  -3.392  -6.431   3.205
N  -4.233  -6.624   2.700
N  -3.862  -5.950   2.061
N  -2.907  -5.662   1.987
N  -3.123  -4.981   1.288
C  -2.815  -4.628   0.404
C  -2.699  -4.358  -0.552
O  -1.195  -5.693   3.618
O  -4.153   3.442   2.652
O   5.421   2.197   5.135
O   4.062  -3.829   2.652
O  -3.726   0.313   2.402
O  -3.273   5.527   2.823
O  -5.186   6.553  -1.405
O   4.204  -5.253   1.420
O   0.477   4.999   2.594
O   4.424  -3.357   0.782
O   4.257   3.407   2.148
O  -0.902   2.144  -2.256
O  -2.651  -4.251   2.500
O   4.407  -1.610  -0.127
O   6.169  -4.443   1.594
O  -1.641   4.503   0.796
O   6.004  -3.403   0.656
O   3.012   0.228  -0.247
O   0.983  -4.961  -2.974
O   2.728   5.622   0.003
O   6.724   3.216   1.099
O   1.954   2.780   3.709
O  -5.275   2.492   1.679
O   1.102  -4.443   0.809
O  -0.048  -4.791  -2.194
O   4.557   6.313   0.022
O   1.031   5.795   3.098
O  -1.520  -4.243   2.923
O  -2.497  -0.434   2.460
O  -6.325   1.048  -0.705
O   0.854   6.729  -2.097
O   5.941   3.833  -2.927
O  -1.808   2.063   2.117
O  -0.434  -2.677   2.649
O   1.426  -4.761  -0.395
O  -6.859   1.859   2.191
O  -0.465   1.122  -1.969
O   3.877   1.887   2.985
O   2.040  -5.473  -1.605
O   6.852  -0.187   0.187
O  -4.287   5.002   1.072
O   1.109  -1.049  -0.690
O  -5.393  -3.327   2.790
O   5.254  -1.832  -0.862
O  -5.568  -2.272   3.466
O   4.187   4.844   2.372
O  -4.972   6.450   3.402
O  -1.095   2.363   3.297
O   6.571  -2.386   1.406
O   4.396   6.742   2.250
O   3.954  -4.423  -3.308
O  -6.374  -3.825   1.230
O   3.204  -6.251   0.158
O   5.845   4.102   3.332
O   2.395  -5.879   1.370
O  -4.777   6.285  -3.142
O   2.060  -2.543   0.811
O  -1.535   6.684   3.936
O   5.252  -3.237  -4.033
O   1.119  -3.130  -1.530
O  -6.376   4.144  -2.268
O  -3.079  -2.516   1.470
O  -1.789   5.739  -1.795
O  -6.811  -5.388  -3.147
O  -3.987  -6.911   3.961
O   1.867  -1.420   0.225
O  -2.260   6.568   1.402
O   0.036  -4.513   1.035
O   3.914   0.326   1.518
O  -0.426   3.380   8.380
O  -2.882   0.837   0.577
O   1.166  -3.437   2.711
O   6.073   0.485  -5.128
O  -0.685  -6.639   3.451
O  -3.531  -5.042   2.629
O   5.560  -5.193   3.532
O   2.466  -4.285  -0.135
O  -1.286  -5.375  -2.918
O  -6.316  -2.944  -2.318
O   3.590   3.701   1.410
O   2.929  -6.245  -0.922
O  -3.412   4.998   1.805
O   6.933   5.795  -5.617
O  -6.775   5.804   2.689
O  -1.909   5.561   1.100
O   0.111   6.242   0.939
O   6.414  -6.096   2.509
O  -1.364   6.705   2.233
O  -1.739  -0.016  -0.100
O  -5.643   2.998   2.603
O   6.162  -4.681  -0.198
O  -2.774   0.627   2.378
O  -2.696  -3.535   3.508
O   2.744   0.094   2.840
O   3.814  -6.429  -1.459
O   1.909  -2.440  -0.377
O   4.193  -6.241   1.863
O   5.222   4.644   2.568
O   1.121   4.311   4.062
O  -1.366  -0.638  -1.698
O  -0.281   0.579  -0.355
O   0.781   6.428   4.078
O   5.067  -3.983   2.398
O  -0.097   0.211   3.402
O   3.203   5.319   2.241
O  -6.817   1.968   3.245
O  -0.438  -5.137   2.955
O  -1.808  -6.417   0.708
O  -5.919  -1.248  -3.303
O   1.710  -0.412   2.963
O   1.122   4.351   0.438
O   4.142  -2.458  -1.187
O  -6.634   4.532  -3.777
O  -4.217  -0.391  -0.437
O  -5.380  -1.462   0.265
O   6.067   5.506   2.405
O  -0.352   2.158   1.305
O   4.253  -1.790   2.350
O  -2.382   1.481   4.271
O  -1.003   2.205  -0.314
O   6.191  -6.107  -3.259
O  -6.605   4.132   0.212
O  -4.435   2.323   2.517
O   5.377  -5.662   0.781
O   1.055   6.619   2.237
O   5.248  -5.971  -1.770
O  -0.009  -5.020   3.891
O   2.009   4.028   0.961
O   3.419  -0.820   0.220
O   2.636  -1.303   1.074
O   6.864   1.042  14.584
O  -0.731   1.568  -1.077
O  -6.434  -2.402   2.261
O  -5.475   5.586   1.033
O  -1.541   4.859  -2.423
O  -3.524  -0.206   0.547
O  -0.114  -1.362  -0.892
O   6.435  -5.886 -10.965
O  -1.084  -1.573   3.290
O  -0.634  -2.837   1.473
O   6.010  -0.510   2.914
O  -2.872   4.862   0.952
O  -4.804  -0.164   3.600
O   4.528   5.371   0.804
O   2.583  -5.341  -0.446
O   1.305  -6.929   3.118
O   0.498  -4.433   2.760
O   2.784   0.682   1.839
O  -3.184   6.864  -1.019
O  -2.002   5.605   2.810
O   6.542   2.199  -1.812
O  -0.093  -6.609   0.344
O   0.288  -3.247   2.118
O  -1.187   1.311   1.563
O   3.453   2.552   1.539
O   1.432  -0.245   1.839
O  -0.891  -5.362   1.248
O  -4.727   5.729  -0.062
O   0.922   6.288  -0.042
O   5.155   6.406   1.386
O  -5.758   0.642   2.509
O  -1.584  -1.233   1.513
O  -0.205  -0.860   3.367
O   4.163   6.759   1.118
O   2.377  -6.611   3.051
O   5.858   1.347   0.154
O  -1.416   4.164   1.787
O  -2.237  -1.803   0.666
O  -6.724   5.631  -3.632
O  -0.987   3.264  -4.351
O   0.346   0.019   1.316
O   6.280   6.224   1.614
O  -5.695  -5.163  -2.731
O  -5.320   4.345   0.903
O  -2.041   6.873  -2.849
O  -0.591  -6.381  -3.804
O  -5.857  -3.261   3.832
O  -0.952   6.005  -0.785
O   6.435  -1.697   2.133
O   2.439  -5.198   2.290
O  -6.228   5.839   1.655
O  -3.071  -3.331   2.367
O   3.661   4.744   0.071
O  -6.943   1.953  -3.055
O   6.989   0.956  -1.550
O   3.921  -1.333   1.328
O   2.697  -5.101   0.690
O   6.373  -1.568  -2.322
O   0.219  -0.881  -1.707
O  -1.306   0.717  -0.754
O   0.613  -3.597  -3.543
O  -6.688  -5.438  -1.245
O   4.497   1.623   4.174
O  -3.937   1.952   1.150
O   5.111   6.911  -1.703
O  -1.085  -3.749  -3.744
O   1.342  -6.449   1.072
O  -1.314  -0.112   1.568
O   6.872  -0.181  -0.916
O   5.935  -4.971   2.579
O  -6.301  -5.904  -2.089
O   6.227  -3.834   3.338
O   2.642   4.714   3.044
O   2.292   6.174   1.465
O   6.693  -4.307  -0.981
O  -6.035  -0.062  -3.994
O   3.332  -5.043  -1.363
O   3.205  -5.153   4.176
O  -6.869   4.895   3.258
O   0.027   6.107  -2.229
O  -1.928   0.194  -2.759
O   3.422   1.327   1.127
O   5.108  -3.838   1.400
O   4.366  -2.306   1.323
O  -3.707  -1.530   2.072
O   5.188   3.303   3.009
O   6.065   2.605  -3.152
O   5.852  -5.647   1.602
O  -0.327  -2.746  -3.805
O  -6.836  -5.302   2.584
O   3.250  -2.903  -0.851
O  -5.658   1.694   2.762
O   5.651   5.149   3.366
O   0.262  -2.097  -1.928
O  -2.089   2.924   1.510
O   3.315  -2.548   2.954
O  -0.006   6.880  -1.101
O  -0.673   1.504   2.756
O   0.763   4.729  10.404
O   6.884   5.074   1.909
O  -3.125   4.029   2.616
O   4.027   6.314   5.829
O  -2.862   5.954  -1.719
O   2.059  -4.386   3.206
O   2.453  -0.498   0.167
O   1.514  -1.794  -1.525
O   4.189   4.521   4.624
O   1.477  -5.982   2.060
O   5.467  -4.717  -1.011
O   6.635   2.766   5.382
O  -4.910  -6.442   3.414
O  -4.801  -1.654   1.563
O   6.931  -4.891  -5.740
O   3.454  -4.476   3.254
O   5.063   5.084   1.623
O   3.641   2.211   4.140
O  -4.980   0.046   0.416
O  -0.448  -3.886  -0.707
O   6.322  -5.031  -1.667
O  -2.987  -6.770   1.832
O  -2.317   2.714  -0.829
O   5.443   2.132   0.834
O   6.491   2.387  -4.170
O  -3.348  -5.946   1.090
O   1.443  -3.383   0.145
O  -0.674   4.178  -2.111
O  -0.859   0.884  -2.907
O  -6.052   1.621   5.130
O   3.356   6.693   0.043
O  -0.847  -4.392  -2.658
O  -4.602   4.612   0.076
O  -3.634  -4.089   3.223
O   3.090  -4.640  -2.649
O  -3.609   1.304   2.015
O   0.405  -0.256  -2.499
O   5.809  -6.519   3.440
O  -4.931   2.210   3.430
O   6.977  -5.955   1.569
O   2.297  -6.705   1.990
O   5.356  -2.416   0.982
O  -2.740   0.615  -2.215
O   0.754  -4.320   1.829
O  -1.322  -0.734  -3.085
O   1.733   0.609   1.309
O  -0.067   5.599   1.908
O  -0.755   6.243  -3.375
O   6.387   0.392   1.077
O  -0.961   6.501  -1.654
O   1.943  -6.782   4.062
O  -5.847  -0.280   3.452
O  -2.654  -0.862   3.790
O   4.963   1.081   1.349
O  -5.193  -4.887   1.412
O  -4.554  -4.014   2.038
O  -2.560   0.564  -0.492
O  -4.956  -1.468   2.975
O   4.209  -5.692   3.436
O  -4.627   0.039  -3.126
O   2.588   3.310   1.288
O   0.795   6.054  -1.347
O   6.976   2.264  -5.477
O   6.604   3.332  -2.069
O   3.522  -3.035   1.947
O   5.978  -0.194   3.993
O   3.808   4.756   1.309
O  -0.811   5.013   1.521
O   2.177   6.374   2.450
O  -0.422   2.804   0.490
O   3.617  -1.625  -1.519
O   3.002   3.084   3.600
O  -1.477   0.541   3.987
O   4.967  -3.657  -2.372
O   1.499   0.825   2.377
O  -0.204  -2.722   0.348
O   5.040   4.629  -2.202
O  -5.158   5.500  -1.332
O  -2.695  -0.470  -0.371
O   5.250   6.066   2.380
O  -6.644  -2.128  -4.216
O  -4.333  -1.014  -3.355
O  -4.854   4.869   2.303
O   4.470   6.181  -1.236
O   5.929  -3.087   2.094
O  -1.858   1.644  -2.799
O  -6.248   6.090  -0.934
O   0.497  -3.245   0.952
O  -6.928  -6.506   0.646
O   3.223  -4.306   0.686
O   3.711   2.588   0.372
O  -5.040  -5.340   3.219
O   6.486   4.312   0.199
O  -0.618   4.519   2.490
O   6.534   6.359   0.549
O  -1.317   4.578  -0.194
O   5.286  -6.911  -0.726
O  -4.787  -0.837   4.458
O   5.719   2.646   3.942
O   1.813  -3.085  -3.073
O  -6.189  -6.056   2.456
O   1.639   5.035   1.326
O  -3.582   6.591   3.090
O  -2.053  -3.333   2.622
O   6.594   0.526  -2.419
O  -0.464  -6.441   1.413
O  -2.118   3.933   4.702
O   0.439   4.683   1.301
O   4.725  -5.498   0.025
O  -1.392   3.416  -0.622
O  -0.075  -5.050   2.000
O  -2.174  -2.963   0.675
O  -0.540   0.120   0.607
O   6.577   6.955  -0.428
O   0.834  -2.419   2.888
O   2.857   4.327   2.036
O   6.687  -5.584   3.405
O   3.325   4.105   3.899
O   0.198  -1.797   2.446
O  -1.506  -2.434   2.737
O  -4.963   6.278   1.770
O  -5.464  -2.276   2.377
O  -2.163   6.809   5.056
O   0.294   6.493   2.895
O  -0.317   6.783   2.141
O  -6.468   1.896   1.134
O  -6.749  -0.246   2.417
O  -2.733  -3.685   1.454
O  -3.153   0.737   3.898
O  -5.097  -4.277   3.019
O  -5.911   2.763   3.677
O   5.021   1.637   2.580
O   6.499   2.333   0.496
O   3.850  -5.747  -0.542
O   4.695   4.041   1.454
O   0.740  -6.021   2.852
O  -0.406  -0.482   2.435
O   5.798   6.303   3.433
O  -6.267   3.611   3.235
O  -4.888   0.409  -0.663
O  -1.591   3.503   0.457
O   0.628  -4.046  -1.110
O   5.514  -4.717   0.600
O  -4.086  -3.142   2.935
O   6.109   5.143  -0.199
O   2.413  -2.000   2.118
O  -3.134  -1.268  -3.701
O  -2.339   4.501  -1.877
O  -0.402   2.419  -3.341
O  -0.192   0.108  -3.275
O  -3.368   2.487   2.619
O   3.361  -4.039  -0.887
O   3.197   6.773   3.928
O   3.774  -5.298   0.422
O  -5.605   5.942   2.689
O  -6.494   6.687  -3.118
O   6.806  -3.535   1.817
O  -2.671  -4.589   3.785
O  -6.609  -6.333  -0.316
O  -6.058  -5.667   1.390
O  -1.268  -4.777   4.048
O  -6.717   0.794   1.828
O  -0.414   0.656   2.285
O   4.474  -2.038  13.757
O  -6.331  -1.156   2.857
O  -2.368   3.127   2.711
O  -1.728   6.316  -3.787
O   4.851   6.107  -3.232
O   1.127  -6.685   0.128
O   5.980   5.436   4.926
O   0.691   2.270   0.967
O  -5.706  -1.700  -1.031
O   3.117   3.664   0.505
O  -3.185  -0.515   1.572
O   2.638  -3.804  -1.923
O  -6.406   0.626  -3.433
O  -3.006   6.448  -0.035
O  -3.701   0.515   1.302
O   0.155  -1.015   1.546
O  -6.938   3.972  -1.252
O   3.863   4.892   3.377
O   1.680   0.485  -4.665
O   1.327   6.700   5.039
O   3.797  -3.610  -2.193
O  -2.534  -2.094 -10.915
O   0.598  -6.256  -4.343
O   0.061   3.911  -4.283
O   6.366  -1.896   4.965
O   0.473   1.566  -3.754
O   6.805  -4.407  -3.325
O   0.579   3.499   0.814
O  -0.826  -0.295  -0.674
O  -5.332  -0.037  -2.046
O   1.470  -1.456   1.461
O   1.988   6.244   3.495
O  -6.173   3.768   2.099
O   1.367  -3.136   3.703
O   1.180   1.293   0.449
O   4.223  -0.616   2.836
O   5.793   0.390  -3.917
O  -3.147   5.387   4.095
O   5.227   4.305  -0.527
O   2.940  -0.626  -7.129
O  -2.855   4.381   3.626
O  -3.378  -0.863  -1.169
O  -5.722   0.137   1.562
O  -2.479   3.951  -2.769
O   3.967  -4.146   1.598
O  -2.063   3.845  -3.900
O  -6.391   6.682   0.870
O  -0.306  -5.599   0.275
O   6.895   4.285   1.166
O  -0.576   4.964   0.332
O   5.743  -2.690  -2.744
O  -3.552  -0.037  -2.050
O  -0.900   4.659   3.571
O  -1.930   4.347   2.934
O  -6.388  -1.077  -0.297
O  -4.168  -0.593   1.863
O  -0.834  -1.680   2.014
O   2.161  -4.222   0.849
O  -1.998  -2.137  -1.587
O  -1.026   6.358   4.830
O   1.664  -4.882   1.627
O   5.765   0.247 -16.224
O   5.665   2.240  -0.604
O  -3.996   6.886   1.619
O   5.667  -2.177  -4.383
O  -6.962  -3.360   3.033
O  -4.656   5.632  -2.284
O   0.493  -6.941   1.509
O  -0.424   6.423   3.761
O   4.811  -5.285  -2.815
O   5.342   6.958  -3.793
O  -5.037   4.996   3.635
O  -2.421  -0.463   0.812
O   5.153  -6.572   1.276
O   4.525  -4.484  -4.213
O  -5.654   1.237   1.527
O  -0.358  -5.732  -1.743
O  -6.509   6.801  -2.012
O   6.847   3.174  -0.503
O   5.510  -1.104  -1.553
O  -6.092  -4.248   3.682
O  -1.170  -1.541  19.943
O   3.845  -6.722   3.424
O   4.174   5.607 -17.891
O  -4.840  -6.184   1.646
O  -6.268  -0.525   0.723
O   3.089   3.313   2.259
O   6.669  -3.163  -0.879
O   1.679   5.226   3.674
O   4.342  -5.072   4.381
O   0.247   1.032  -2.857
O  -1.519   0.686   2.340
O  -6.848  -4.648   1.620
O   1.550   2.093   2.759
O  -6.356   0.617  -2.350
O  -4.716  -1.009  -2.366
O   3.632   5.687  -0.422
O   2.945   5.590   3.587
O  -5.313   3.188  -7.927
O  -6.734  -4.850  -2.286
O   5.004  -1.162   2.691
O   6.180  -6.752   1.656
O   5.968  -3.563  -3.169
O  -6.942   0.321   4.007
O  -5.428  -4.587   4.550
O  -6.761  -6.959   2.042
